new line.

another line.

and another one.